data_crystal

_cell_length_a 20.40310
_cell_length_b 20.40310
_cell_length_c 20.40310
_cell_angle_alpha 90.00000
_cell_angle_beta  90.00000
_cell_angle_gamma 90.00000

_symmetry_space_group_name_	'P 1'
_symmetry_space_group_name_H-M	'P 1'

loop_
_symmetry_equiv_pos_as_xyz
  x,y,z

loop_
_atom_site_label
_atom_site_type_symbol
_atom_site_fract_x
_atom_site_fract_y
_atom_site_fract_z
_atom_site_charge
O 	O 	0.58590 0.94600 0.66780 -0.45400
O 	O 	0.53190 0.03640 0.68650 -0.42600
C 	C 	0.53930 0.98520 0.65480 0.33500
C 	C 	0.49550 0.96910 0.59830 0.07500
C 	C 	0.44310 0.00970 0.58360 -0.21800
H 	H 	0.43540 0.04670 0.60910 0.14100
O 	O 	0.08590 0.44600 0.16780 -0.46000
O 	O 	0.03190 0.53640 0.18650 -0.39000
C 	C 	0.03930 0.48520 0.15480 0.25000
C 	C 	0.99550 0.46910 0.09830 0.03600
C 	C 	0.94310 0.50970 0.08360 0.00200
H 	H 	0.93540 0.54670 0.10910 0.08800
O 	O 	0.91410 0.05400 0.16780 -0.48900
O 	O 	0.96810 0.96360 0.18650 -0.35600
C 	C 	0.96070 0.01480 0.15480 0.40400
C 	C 	0.00450 0.03090 0.09830 -0.41600
C 	C 	0.05690 0.99030 0.08360 0.38800
H 	H 	0.06460 0.95330 0.10910 -0.05400
O 	O 	0.41410 0.55400 0.66780 -0.46200
O 	O 	0.46810 0.46360 0.68650 -0.38600
C 	C 	0.46070 0.51480 0.65480 0.31700
C 	C 	0.50450 0.53090 0.59830 -0.06000
C 	C 	0.55690 0.49030 0.58360 0.01600
H 	H 	0.56460 0.45330 0.60910 0.07500
O 	O 	0.41410 0.44600 0.83220 -0.45200
O 	O 	0.46810 0.53640 0.81350 -0.37600
C 	C 	0.46070 0.48520 0.84520 0.28900
C 	C 	0.50450 0.46910 0.90170 0.02300
C 	C 	0.55690 0.50970 0.91640 -0.07300
H 	H 	0.56460 0.54670 0.89090 0.10700
O 	O 	0.91410 0.94600 0.33220 -0.47200
O 	O 	0.96810 0.03640 0.31350 -0.43600
C 	C 	0.96070 0.98520 0.34520 0.44600
C 	C 	0.00450 0.96910 0.40170 -0.14300
C 	C 	0.05690 0.00970 0.41640 -0.07800
H 	H 	0.06460 0.04670 0.39090 0.08500
O 	O 	0.08590 0.55400 0.33220 -0.44600
O 	O 	0.03190 0.46360 0.31350 -0.37900
C 	C 	0.03930 0.51480 0.34520 0.21600
C 	C 	0.99550 0.53090 0.40170 0.13800
C 	C 	0.94310 0.49030 0.41640 -0.09900
H 	H 	0.93540 0.45330 0.39090 0.12400
O 	O 	0.58590 0.05400 0.83220 -0.45600
O 	O 	0.53190 0.96360 0.81350 -0.33300
C 	C 	0.53930 0.01480 0.84520 0.27400
C 	C 	0.49550 0.03090 0.90170 -0.12400
C 	C 	0.44310 0.99030 0.91640 0.17700
H 	H 	0.43540 0.95330 0.89090 0.03400
O 	O 	0.66780 0.58590 0.94600 -0.45300
O 	O 	0.68650 0.53190 0.03640 -0.42500
C 	C 	0.65480 0.53930 0.98520 0.33600
C 	C 	0.59830 0.49550 0.96910 0.07600
C 	C 	0.58360 0.44310 0.00970 -0.21700
H 	H 	0.60910 0.43540 0.04670 0.14200
O 	O 	0.16780 0.08590 0.44600 -0.45900
O 	O 	0.18650 0.03190 0.53640 -0.38900
C 	C 	0.15480 0.03930 0.48520 0.25100
C 	C 	0.09830 0.99550 0.46910 0.03700
C 	C 	0.08360 0.94310 0.50970 0.00300
H 	H 	0.10910 0.93540 0.54670 0.08900
O 	O 	0.16780 0.91410 0.05400 -0.48800
O 	O 	0.18650 0.96810 0.96360 -0.35500
C 	C 	0.15480 0.96070 0.01480 0.40500
C 	C 	0.09830 0.00450 0.03090 -0.41600
C 	C 	0.08360 0.05690 0.99030 0.38800
H 	H 	0.10910 0.06460 0.95330 -0.05400
O 	O 	0.66780 0.41410 0.55400 -0.46200
O 	O 	0.68650 0.46810 0.46360 -0.38600
C 	C 	0.65480 0.46070 0.51480 0.31700
C 	C 	0.59830 0.50450 0.53090 -0.06000
C 	C 	0.58360 0.55690 0.49030 0.01600
H 	H 	0.60910 0.56460 0.45330 0.07500
O 	O 	0.83220 0.41410 0.44600 -0.45200
O 	O 	0.81350 0.46810 0.53640 -0.37600
C 	C 	0.84520 0.46070 0.48520 0.28900
C 	C 	0.90170 0.50450 0.46910 0.02300
C 	C 	0.91640 0.55690 0.50970 -0.07300
H 	H 	0.89090 0.56460 0.54670 0.10700
O 	O 	0.33220 0.91410 0.94600 -0.47200
O 	O 	0.31350 0.96810 0.03640 -0.43600
C 	C 	0.34520 0.96070 0.98520 0.44600
C 	C 	0.40170 0.00450 0.96910 -0.14300
C 	C 	0.41640 0.05690 0.00970 -0.07800
H 	H 	0.39090 0.06460 0.04670 0.08500
O 	O 	0.33220 0.08590 0.55400 -0.44600
O 	O 	0.31350 0.03190 0.46360 -0.37900
C 	C 	0.34520 0.03930 0.51480 0.21600
C 	C 	0.40170 0.99550 0.53090 0.13800
C 	C 	0.41640 0.94310 0.49030 -0.09900
H 	H 	0.39090 0.93540 0.45330 0.12400
O 	O 	0.83220 0.58590 0.05400 -0.45600
O 	O 	0.81350 0.53190 0.96360 -0.33300
C 	C 	0.84520 0.53930 0.01480 0.27400
C 	C 	0.90170 0.49550 0.03090 -0.12400
C 	C 	0.91640 0.44310 0.99030 0.17700
H 	H 	0.89090 0.43540 0.95330 0.03400
O 	O 	0.94600 0.66780 0.58590 -0.45300
O 	O 	0.03640 0.68650 0.53190 -0.42500
C 	C 	0.98520 0.65480 0.53930 0.33600
C 	C 	0.96910 0.59830 0.49550 0.07600
C 	C 	0.00970 0.58360 0.44310 -0.21700
H 	H 	0.04670 0.60910 0.43540 0.14200
O 	O 	0.44600 0.16780 0.08590 -0.45900
O 	O 	0.53640 0.18650 0.03190 -0.38900
C 	C 	0.48520 0.15480 0.03930 0.25100
C 	C 	0.46910 0.09830 0.99550 0.03700
C 	C 	0.50970 0.08360 0.94310 0.00300
H 	H 	0.54670 0.10910 0.93540 0.08900
O 	O 	0.05400 0.16780 0.91410 -0.48800
O 	O 	0.96360 0.18650 0.96810 -0.35500
C 	C 	0.01480 0.15480 0.96070 0.40500
C 	C 	0.03090 0.09830 0.00450 -0.41600
C 	C 	0.99030 0.08360 0.05690 0.38800
H 	H 	0.95330 0.10910 0.06460 -0.05400
O 	O 	0.55400 0.66780 0.41410 -0.46200
O 	O 	0.46360 0.68650 0.46810 -0.38600
C 	C 	0.51480 0.65480 0.46070 0.31700
C 	C 	0.53090 0.59830 0.50450 -0.06000
C 	C 	0.49030 0.58360 0.55690 0.01600
H 	H 	0.45330 0.60910 0.56460 0.07500
O 	O 	0.44600 0.83220 0.41410 -0.45200
O 	O 	0.53640 0.81350 0.46810 -0.37600
C 	C 	0.48520 0.84520 0.46070 0.28900
C 	C 	0.46910 0.90170 0.50450 0.02300
C 	C 	0.50970 0.91640 0.55690 -0.07300
H 	H 	0.54670 0.89090 0.56460 0.10700
O 	O 	0.94600 0.33220 0.91410 -0.47200
O 	O 	0.03640 0.31350 0.96810 -0.43600
C 	C 	0.98520 0.34520 0.96070 0.44600
C 	C 	0.96910 0.40170 0.00450 -0.14300
C 	C 	0.00970 0.41640 0.05690 -0.07800
H 	H 	0.04670 0.39090 0.06460 0.08500
O 	O 	0.55400 0.33220 0.08590 -0.44600
O 	O 	0.46360 0.31350 0.03190 -0.37900
C 	C 	0.51480 0.34520 0.03930 0.21600
C 	C 	0.53090 0.40170 0.99550 0.13800
C 	C 	0.49030 0.41640 0.94310 -0.09900
H 	H 	0.45330 0.39090 0.93540 0.12400
O 	O 	0.05400 0.83220 0.58590 -0.45600
O 	O 	0.96360 0.81350 0.53190 -0.33300
C 	C 	0.01480 0.84520 0.53930 0.27400
C 	C 	0.03090 0.90170 0.49550 -0.12400
C 	C 	0.99030 0.91640 0.44310 0.17700
H 	H 	0.95330 0.89090 0.43540 0.03400
O 	O 	0.19600 0.83590 0.91780 -0.44400
O 	O 	0.28640 0.78190 0.93650 -0.36500
C 	C 	0.23520 0.78930 0.90480 0.31500
C 	C 	0.21910 0.74550 0.84830 -0.05300
C 	C 	0.25970 0.69310 0.83360 0.01400
H 	H 	0.29670 0.68540 0.85910 0.08000
O 	O 	0.69600 0.33590 0.41780 -0.46300
O 	O 	0.78640 0.28190 0.43650 -0.38400
C 	C 	0.73520 0.28930 0.40480 0.31700
C 	C 	0.71910 0.24550 0.34830 -0.06400
C 	C 	0.75970 0.19310 0.33360 0.01900
H 	H 	0.79670 0.18540 0.35910 0.07400
O 	O 	0.30400 0.16410 0.41780 -0.46900
O 	O 	0.21360 0.21810 0.43650 -0.39400
C 	C 	0.26480 0.21070 0.40480 0.31900
C 	C 	0.28090 0.25450 0.34830 -0.06900
C 	C 	0.24030 0.30690 0.33360 0.02000
H 	H 	0.20330 0.31460 0.35910 0.06800
O 	O 	0.80400 0.66410 0.91780 -0.43900
O 	O 	0.71360 0.71810 0.93650 -0.36200
C 	C 	0.76480 0.71070 0.90480 0.31300
C 	C 	0.78090 0.75450 0.84830 -0.04000
C 	C 	0.74030 0.80690 0.83360 0.00700
H 	H 	0.70330 0.81460 0.85910 0.08700
O 	O 	0.69600 0.66410 0.08220 -0.47500
O 	O 	0.78640 0.71810 0.06350 -0.39500
C 	C 	0.73520 0.71070 0.09520 0.31800
C 	C 	0.71910 0.75450 0.15170 -0.06100
C 	C 	0.75970 0.80690 0.16640 0.01400
H 	H 	0.79670 0.81460 0.14090 0.07700
O 	O 	0.19600 0.16410 0.58220 -0.47100
O 	O 	0.28640 0.21810 0.56350 -0.38900
C 	C 	0.23520 0.21070 0.59520 0.31800
C 	C 	0.21910 0.25450 0.65170 -0.06700
C 	C 	0.25970 0.30690 0.66640 0.01900
H 	H 	0.29670 0.31460 0.64090 0.07300
O 	O 	0.80400 0.33590 0.58220 -0.45900
O 	O 	0.71360 0.28190 0.56350 -0.38700
C 	C 	0.76480 0.28930 0.59520 0.31700
C 	C 	0.78090 0.24550 0.65170 -0.05800
C 	C 	0.74030 0.19310 0.66640 0.01600
H 	H 	0.70330 0.18540 0.64090 0.07300
O 	O 	0.30400 0.83590 0.08220 -0.47200
O 	O 	0.21360 0.78190 0.06350 -0.40400
C 	C 	0.26480 0.78930 0.09520 0.32000
C 	C 	0.28090 0.74550 0.15170 -0.06900
C 	C 	0.24030 0.69310 0.16640 0.02000
H 	H 	0.20330 0.68540 0.14090 0.06600
O 	O 	0.83590 0.91780 0.19600 -0.44400
O 	O 	0.78190 0.93650 0.28640 -0.36500
C 	C 	0.78930 0.90480 0.23520 0.31500
C 	C 	0.74550 0.84830 0.21910 -0.05300
C 	C 	0.69310 0.83360 0.25970 0.01400
H 	H 	0.68540 0.85910 0.29670 0.08000
O 	O 	0.33590 0.41780 0.69600 -0.46300
O 	O 	0.28190 0.43650 0.78640 -0.38400
C 	C 	0.28930 0.40480 0.73520 0.31700
C 	C 	0.24550 0.34830 0.71910 -0.06400
C 	C 	0.19310 0.33360 0.75970 0.01900
H 	H 	0.18540 0.35910 0.79670 0.07400
O 	O 	0.16410 0.41780 0.30400 -0.46900
O 	O 	0.21810 0.43650 0.21360 -0.39400
C 	C 	0.21070 0.40480 0.26480 0.31900
C 	C 	0.25450 0.34830 0.28090 -0.06900
C 	C 	0.30690 0.33360 0.24030 0.02000
H 	H 	0.31460 0.35910 0.20330 0.06800
O 	O 	0.66410 0.91780 0.80400 -0.43900
O 	O 	0.71810 0.93650 0.71360 -0.36200
C 	C 	0.71070 0.90480 0.76480 0.31300
C 	C 	0.75450 0.84830 0.78090 -0.04000
C 	C 	0.80690 0.83360 0.74030 0.00700
H 	H 	0.81460 0.85910 0.70330 0.08700
O 	O 	0.66410 0.08220 0.69600 -0.47500
O 	O 	0.71810 0.06350 0.78640 -0.39500
C 	C 	0.71070 0.09520 0.73520 0.31800
C 	C 	0.75450 0.15170 0.71910 -0.06100
C 	C 	0.80690 0.16640 0.75970 0.01400
H 	H 	0.81460 0.14090 0.79670 0.07700
O 	O 	0.16410 0.58220 0.19600 -0.47100
O 	O 	0.21810 0.56350 0.28640 -0.38900
C 	C 	0.21070 0.59520 0.23520 0.31800
C 	C 	0.25450 0.65170 0.21910 -0.06700
C 	C 	0.30690 0.66640 0.25970 0.01900
H 	H 	0.31460 0.64090 0.29670 0.07300
O 	O 	0.33590 0.58220 0.80400 -0.45900
O 	O 	0.28190 0.56350 0.71360 -0.38700
C 	C 	0.28930 0.59520 0.76480 0.31700
C 	C 	0.24550 0.65170 0.78090 -0.05800
C 	C 	0.19310 0.66640 0.74030 0.01600
H 	H 	0.18540 0.64090 0.70330 0.07300
O 	O 	0.83590 0.08220 0.30400 -0.47200
O 	O 	0.78190 0.06350 0.21360 -0.40400
C 	C 	0.78930 0.09520 0.26480 0.32000
C 	C 	0.74550 0.15170 0.28090 -0.06900
C 	C 	0.69310 0.16640 0.24030 0.02000
H 	H 	0.68540 0.14090 0.20330 0.06600
O 	O 	0.91780 0.19600 0.83590 -0.44400
O 	O 	0.93650 0.28640 0.78190 -0.36500
C 	C 	0.90480 0.23520 0.78930 0.31500
C 	C 	0.84830 0.21910 0.74550 -0.05300
C 	C 	0.83360 0.25970 0.69310 0.01400
H 	H 	0.85910 0.29670 0.68540 0.08000
O 	O 	0.41780 0.69600 0.33590 -0.46300
O 	O 	0.43650 0.78640 0.28190 -0.38400
C 	C 	0.40480 0.73520 0.28930 0.31700
C 	C 	0.34830 0.71910 0.24550 -0.06400
C 	C 	0.33360 0.75970 0.19310 0.01900
H 	H 	0.35910 0.79670 0.18540 0.07400
O 	O 	0.41780 0.30400 0.16410 -0.46900
O 	O 	0.43650 0.21360 0.21810 -0.39400
C 	C 	0.40480 0.26480 0.21070 0.31900
C 	C 	0.34830 0.28090 0.25450 -0.06900
C 	C 	0.33360 0.24030 0.30690 0.02000
H 	H 	0.35910 0.20330 0.31460 0.06800
O 	O 	0.91780 0.80400 0.66410 -0.43900
O 	O 	0.93650 0.71360 0.71810 -0.36200
C 	C 	0.90480 0.76480 0.71070 0.31300
C 	C 	0.84830 0.78090 0.75450 -0.04000
C 	C 	0.83360 0.74030 0.80690 0.00700
H 	H 	0.85910 0.70330 0.81460 0.08700
O 	O 	0.08220 0.69600 0.66410 -0.47500
O 	O 	0.06350 0.78640 0.71810 -0.39500
C 	C 	0.09520 0.73520 0.71070 0.31800
C 	C 	0.15170 0.71910 0.75450 -0.06100
C 	C 	0.16640 0.75970 0.80690 0.01400
H 	H 	0.14090 0.79670 0.81460 0.07700
O 	O 	0.58220 0.19600 0.16410 -0.47100
O 	O 	0.56350 0.28640 0.21810 -0.38900
C 	C 	0.59520 0.23520 0.21070 0.31800
C 	C 	0.65170 0.21910 0.25450 -0.06700
C 	C 	0.66640 0.25970 0.30690 0.01900
H 	H 	0.64090 0.29670 0.31460 0.07300
O 	O 	0.58220 0.80400 0.33590 -0.45900
O 	O 	0.56350 0.71360 0.28190 -0.38700
C 	C 	0.59520 0.76480 0.28930 0.31700
C 	C 	0.65170 0.78090 0.24550 -0.05800
C 	C 	0.66640 0.74030 0.19310 0.01600
H 	H 	0.64090 0.70330 0.18540 0.07300
O 	O 	0.08220 0.30400 0.83590 -0.47200
O 	O 	0.06350 0.21360 0.78190 -0.40400
C 	C 	0.09520 0.26480 0.78930 0.32000
C 	C 	0.15170 0.28090 0.74550 -0.06900
C 	C 	0.16640 0.24030 0.69310 0.02000
H 	H 	0.14090 0.20330 0.68540 0.06600
In	In	0.62500 -0.00000 0.75000 1.98800
In	In	0.87500 0.00000 0.25000 1.98800
In	In	0.37500 0.50000 0.75000 2.00100
In	In	0.12500 0.50000 0.25000 2.00000
In	In	0.75000 0.62500 -0.00000 1.98800
In	In	0.25000 0.87500 -0.00000 1.98800
In	In	0.75000 0.37500 0.50000 2.00100
In	In	0.25000 0.12500 0.50000 2.00000
In	In	-0.00000 0.75000 0.62500 1.98800
In	In	-0.00000 0.25000 0.87500 1.98800
In	In	0.50000 0.75000 0.37500 2.00100
In	In	0.50000 0.25000 0.12500 2.00000
