data_crystal
 
_cell_length_a    6.96775
_cell_length_b    15.40000
_cell_length_c    15.42110
_cell_angle_alpha 117.56400
_cell_angle_beta  98.67390
_cell_angle_gamma 98.70470
 
_symmetry_space_group_name_Hall 'P 1'
_symmetry_space_group_name_H-M  'P 1'
 
loop_
_symmetry_equiv_pos_as_xyz
 'x,y,z' 
 
loop_
_atom_site_label
_atom_site_type_symbol
_atom_site_fract_x
_atom_site_fract_y
_atom_site_fract_z
_atom_site_charge
C          C       0.03198   0.90054   0.46577   0.1870000000
C          C       0.08103   0.46326   0.91497  -0.1740000000
C          C       0.13137   0.56584   0.09913   0.1870000000
C          C       0.16623   0.08519   0.54897  -0.1750000000
C          C       0.17945   0.43074   0.82994   0.3860000000
C          C       0.19214   0.98722   0.51494  -0.0710000000
C          C       0.20483   0.52779   0.01259  -0.0730000000
C          C       0.25129   0.60109   0.43035   0.3860000000
C          C       0.32290   0.51504   0.52768  -0.0720000000
C          C       0.34978   0.17032   0.60199   0.3860000000
C          C       0.38223   0.54845   0.46308  -0.1750000000
C          C       0.43442   0.46640   0.56592   0.1880000000
C          C       0.56558   0.53360   0.43408   0.1880000000
C          C       0.61777   0.45155   0.53692  -0.1750000000
C          C       0.65022   0.82968   0.39801   0.3860000000
C          C       0.67710   0.48496   0.47232  -0.0720000000
C          C       0.74871   0.39891   0.56965   0.3860000000
C          C       0.79517   0.47221   0.98741  -0.0730000000
C          C       0.80786   0.01278   0.48506  -0.0710000000
C          C       0.82055   0.56926   0.17006   0.3860000000
C          C       0.83377   0.91481   0.45103  -0.1750000000
C          C       0.86863   0.43416   0.90087   0.1870000000
C          C       0.91897   0.53674   0.08503  -0.1730000000
C          C       0.96802   0.09946   0.53423   0.1880000000
H          H       0.18345   0.52756   0.54920   0.0590000000
H          H       0.34407   0.97808   0.52739   0.0590000000
H          H       0.36584   0.54940   0.02155   0.0590000000
H          H       0.63416   0.45060   0.97845   0.0590000000
H          H       0.65593   0.02192   0.47261   0.0590000000
H          H       0.81655   0.47244   0.45080   0.0590000000
O          O       0.06914   0.36860   0.73969  -0.5690000000
O          O       0.07325   0.80916   0.43511  -0.5130000000
O          O       0.09643   0.61781   0.46347  -0.4540000000
O          O       0.26402   0.62706   0.19021  -0.5130000000
O          O       0.29956   0.62958   0.36820  -0.5690000000
O          O       0.32998   0.26088   0.63057  -0.5690000000
O          O       0.36301   0.43627   0.62724  -0.5130000000
O          O       0.36745   0.46401   0.84623  -0.4540000000
O          O       0.47868   0.84617   0.38113  -0.4540000000
O          O       0.52132   0.15383   0.61887  -0.4540000000
O          O       0.63255   0.53599   0.15377  -0.4540000000
O          O       0.63699   0.56373   0.37276  -0.5130000000
O          O       0.67002   0.73912   0.36943  -0.5690000000
O          O       0.70044   0.37042   0.63180  -0.5690000000
O          O       0.73598   0.37294   0.80979  -0.5130000000
O          O       0.90357   0.38219   0.53653  -0.4540000000
O          O       0.92675   0.19084   0.56489  -0.5130000000
O          O       0.93086   0.63140   0.26031  -0.5690000000
Fe         Fe      0.10807   0.32430   0.59200   1.1500000000
Fe         Fe      0.21621   0.73303   0.32332   1.1500000000
Fe         Fe      0.48320   0.59129   0.26667   1.1500000000
Fe         Fe      0.51680   0.40871   0.73333   1.1500000000
Fe         Fe      0.78379   0.26697   0.67668   1.1500000000
Fe         Fe      0.89193   0.67570   0.40800   1.1500000000
